Mass Spectrum: Hydrogen cyanide
Formula: C H N
CAS: 74-90-8
Molecular weight: 27
m/z	RELATIVE INTENSITY
12	420
13	170
14	170
15	10
26	1682
27	9999
28	170
29	10
